Version 4
SHEET 1 880 680
WIRE 288 -16 208 -16
WIRE 288 16 288 -16
WIRE -176 112 -208 112
WIRE -64 112 -112 112
WIRE 64 112 16 112
WIRE 288 112 288 96
WIRE 208 128 208 -16
WIRE -208 144 -208 112
WIRE 64 144 64 112
WIRE 176 144 64 144
WIRE 320 160 240 160
WIRE 384 160 320 160
WIRE 80 176 -128 176
WIRE 176 176 80 176
WIRE -128 224 -128 176
WIRE -80 224 -128 224
WIRE 96 224 0 224
WIRE 208 224 208 192
WIRE 96 320 96 304
WIRE 208 320 208 304
FLAG 288 112 0
FLAG 208 320 0
FLAG 96 320 0
FLAG -208 144 0
FLAG 320 160 Vo
FLAG 80 176 Vi
SYMBOL Opamps\\UniversalOpamp2 208 160 R0
SYMATTR InstName U1
SYMBOL voltage 96 208 R0
WINDOW 3 -86 95 Left 2
WINDOW 123 0 0 Left 0
WINDOW 39 0 0 Left 0
SYMATTR InstName V1
SYMATTR Value SINE(0 1.5 1k)
SYMBOL voltage 208 208 R0
WINDOW 123 0 0 Left 0
WINDOW 39 0 0 Left 0
SYMATTR InstName V2
SYMATTR Value -12
SYMBOL voltage 288 0 R0
WINDOW 123 0 0 Left 0
WINDOW 39 0 0 Left 0
SYMATTR InstName V3
SYMATTR Value 12
SYMBOL res 16 208 R90
WINDOW 0 0 56 VBottom 2
WINDOW 3 32 56 VTop 2
SYMATTR InstName R1
SYMATTR Value 1k
SYMBOL res 32 96 R90
WINDOW 0 0 56 VBottom 2
WINDOW 3 32 56 VTop 2
SYMATTR InstName R2
SYMATTR Value 1k
SYMBOL Misc\\cell -112 112 R90
WINDOW 0 -32 32 VBottom 2
WINDOW 3 32 32 VTop 2
WINDOW 123 0 0 Left 0
WINDOW 39 0 0 Left 0
SYMATTR InstName V4
SYMATTR Value 1
TEXT -228 344 Left 2 !.tran 5ms
