Version 4
SHEET 1 880 680
WIRE 208 32 96 32
WIRE 208 144 208 112
WIRE 96 160 96 32
WIRE 96 160 48 160
WIRE 176 160 96 160
WIRE 48 176 48 160
WIRE 400 176 240 176
WIRE 176 192 96 192
WIRE 96 208 96 192
WIRE 208 240 208 208
WIRE 128 288 96 288
WIRE 96 320 96 288
WIRE 128 320 128 288
WIRE 208 320 128 320
FLAG 48 176 0
FLAG 96 320 0
SYMBOL Opamps\\UniversalOpamp2 208 176 R0
SYMATTR InstName IC741
SYMBOL voltage 96 192 R0
WINDOW 3 -83 108 Left 2
WINDOW 123 0 0 Left 0
WINDOW 39 0 0 Left 0
SYMATTR Value SINE(0 2 1k)
SYMATTR InstName V1
SYMBOL voltage 208 128 R180
WINDOW 0 24 96 Left 2
WINDOW 3 24 16 Left 2
WINDOW 123 0 0 Left 0
WINDOW 39 0 0 Left 0
SYMATTR InstName V2
SYMATTR Value +12
SYMBOL voltage 208 224 R0
WINDOW 123 0 0 Left 0
WINDOW 39 0 0 Left 0
WINDOW 3 8 93 Left 2
SYMATTR InstName V3
SYMATTR Value -12
TEXT 12 344 Left 2 !.tran 5ms
