Version 4
SHEET 1 880 680
WIRE 208 32 96 32
WIRE 96 112 16 112
WIRE 288 128 288 64
WIRE 288 128 112 128
WIRE 368 128 368 64
WIRE 368 128 320 128
WIRE 208 144 208 112
WIRE 96 160 96 112
WIRE 112 160 112 128
WIRE 112 160 96 160
WIRE 176 160 112 160
WIRE 320 176 320 128
WIRE 320 176 240 176
WIRE 400 176 320 176
WIRE 176 192 144 192
WIRE 16 224 16 192
WIRE 208 240 208 208
WIRE 16 320 16 304
WIRE 208 320 128 320
FLAG 16 320 0
FLAG 128 320 0
FLAG 96 32 0
FLAG 144 192 0
SYMBOL Opamps\\UniversalOpamp2 208 176 R0
SYMATTR InstName IC741
SYMBOL voltage 16 208 R0
WINDOW 3 -83 96 Left 2
WINDOW 123 0 0 Left 0
WINDOW 39 0 0 Left 0
SYMATTR Value SINE(0 2 1k)
SYMATTR InstName V1
SYMBOL voltage 208 128 R180
WINDOW 0 31 74 Left 2
WINDOW 3 24 16 Left 2
WINDOW 123 0 0 Left 0
WINDOW 39 0 0 Left 0
SYMATTR InstName V2
SYMATTR Value +12
SYMBOL voltage 208 224 R0
WINDOW 123 0 0 Left 0
WINDOW 39 0 0 Left 0
WINDOW 0 10 15 Left 2
WINDOW 3 3 90 Left 2
SYMATTR InstName V3
SYMATTR Value -12
SYMBOL res 384 48 R90
WINDOW 0 0 56 VBottom 2
WINDOW 3 32 56 VTop 2
SYMATTR InstName Rf
SYMATTR Value 5k
SYMBOL res 0 96 R0
SYMATTR InstName R1
SYMATTR Value 1k
TEXT -80 352 Left 2 !.tran 5ms
