Version 4
SHEET 1 880 680
WIRE 160 48 128 48
WIRE 320 64 272 64
WIRE -96 96 -160 96
WIRE 272 128 272 64
WIRE 272 128 192 128
WIRE -96 144 -96 96
WIRE -48 144 -96 144
WIRE 128 144 128 48
WIRE 128 144 32 144
WIRE 192 144 192 128
WIRE 128 160 128 144
WIRE 128 160 96 160
WIRE 160 160 128 160
WIRE -160 176 -208 176
WIRE 240 176 240 48
WIRE 240 176 224 176
WIRE 304 176 240 176
WIRE 160 192 128 192
WIRE 320 192 320 144
WIRE -208 208 -208 176
WIRE -48 208 -144 208
WIRE -48 224 -48 208
WIRE 96 224 96 160
WIRE 96 224 32 224
WIRE -144 240 -144 208
WIRE 192 240 192 208
WIRE 208 240 192 240
WIRE 128 272 128 192
WIRE 208 320 208 240
WIRE -144 384 -144 320
WIRE 208 448 208 400
FLAG 128 272 0
FLAG 320 192 0
FLAG 208 448 0
FLAG -208 208 0
FLAG -144 384 0
SYMBOL Opamps\\UniversalOpamp2 192 176 R0
SYMATTR InstName U1
SYMBOL res 144 32 M90
WINDOW 0 0 56 VBottom 2
WINDOW 3 32 56 VTop 2
SYMATTR InstName R1
SYMATTR Value 1k
SYMBOL res -64 128 M90
WINDOW 0 0 56 VBottom 2
WINDOW 3 32 56 VTop 2
SYMATTR InstName R2
SYMATTR Value 1k
SYMBOL res -64 208 M90
WINDOW 0 0 56 VBottom 2
WINDOW 3 32 56 VTop 2
SYMATTR InstName R3
SYMATTR Value 1k
SYMBOL voltage 320 48 R0
SYMATTR InstName V1
SYMATTR Value +12
SYMBOL voltage 208 304 R0
SYMATTR InstName V2
SYMATTR Value -12
SYMBOL voltage -160 80 R0
SYMATTR InstName V3
SYMATTR Value 5
SYMBOL voltage -144 224 R0
SYMATTR InstName V4
SYMATTR Value 1
