Version 4
SHEET 1 880 680
WIRE 208 80 144 80
WIRE 32 96 -32 96
WIRE 144 96 144 80
WIRE 144 96 112 96
WIRE -32 112 -32 96
WIRE 368 112 208 112
WIRE 368 128 368 112
WIRE 208 144 208 112
WIRE 144 160 144 96
WIRE 176 160 144 160
WIRE -16 176 -112 176
WIRE 80 176 64 176
WIRE 288 176 288 80
WIRE 288 176 240 176
WIRE 320 176 288 176
WIRE 176 192 112 192
WIRE 80 224 80 176
WIRE 112 224 112 192
WIRE 112 224 80 224
WIRE 368 240 368 208
WIRE -16 256 -64 256
WIRE 80 256 80 224
WIRE 80 256 64 256
WIRE 208 256 208 208
WIRE -112 272 -112 256
WIRE -64 272 -64 256
WIRE 208 368 208 336
WIRE -64 384 -64 352
FLAG 368 240 0
FLAG 208 368 0
FLAG -64 384 0
FLAG -112 272 0
FLAG -32 112 0
SYMBOL Opamps\\UniversalOpamp2 208 176 R0
WINDOW 0 17 -22 Left 2
SYMATTR InstName U1
SYMBOL res 80 160 R90
WINDOW 0 10 62 VBottom 2
WINDOW 3 23 51 VTop 2
SYMATTR InstName R1
SYMATTR Value 1k
SYMBOL res 80 240 R90
WINDOW 0 9 64 VBottom 2
WINDOW 3 23 50 VTop 2
SYMATTR InstName R2
SYMATTR Value 1k
SYMBOL res 304 64 R90
WINDOW 0 10 65 VBottom 2
WINDOW 3 19 48 VTop 2
SYMATTR InstName Rf
SYMATTR Value 1k
SYMBOL res 128 80 R90
WINDOW 0 5 62 VBottom 2
WINDOW 3 22 51 VTop 2
SYMATTR InstName R3
SYMATTR Value 1k
SYMBOL voltage 368 112 R0
WINDOW 0 15 21 Left 2
WINDOW 3 3 93 Left 2
SYMATTR InstName V1
SYMATTR Value +12
SYMBOL voltage 208 240 R0
WINDOW 0 11 19 Left 2
WINDOW 3 3 91 Left 2
SYMATTR InstName V2
SYMATTR Value -12
SYMBOL voltage -112 160 R0
WINDOW 0 -37 15 Left 2
WINDOW 3 -103 98 Left 2
WINDOW 123 0 0 Left 0
WINDOW 39 0 0 Left 0
SYMATTR InstName V3
SYMATTR Value SINE(0 5 1k)
SYMBOL voltage -64 256 R0
WINDOW 0 20 24 Left 2
WINDOW 3 -85 98 Left 2
WINDOW 123 0 0 Left 0
WINDOW 39 0 0 Left 0
SYMATTR InstName V4
SYMATTR Value SINE(0 1 1k)
